<?xml version="1.0" encoding="UTF-8"?>

<!-- generated on 2023-02-21 18:48:30 by Eclipse SUMO netedit Version 1.16.0
-->

<additional xmlns:xsi="http://www.w3.org/2001/XMLSchema-instance" xsi:noNamespaceSchemaLocation="http://sumo.dlr.de/xsd/additional_file.xsd">
    <!-- Other additionals -->
    <rerouter id="rr_0" edges="E1" pos="33.26,24.08">
        <interval begin="0.00" end="3600.00">
            <destProbReroute id="E4" probability="1.00"/>
        </interval>
    </rerouter>
    <rerouter id="rr_1" edges="E4" pos="-7.23,55.65">
        <interval begin="0.00" end="3600.00">
            <destProbReroute id="E1" probability="1.00"/>
        </interval>
    </rerouter>
</additional>
