<?xml version="1.0" encoding="UTF-8"?>

<!-- generated on 2023-02-21 18:37:15 by Eclipse SUMO netedit Version 1.16.0
<configuration xmlns:xsi="http://www.w3.org/2001/XMLSchema-instance" xsi:noNamespaceSchemaLocation="http://sumo.dlr.de/xsd/netconvertConfiguration.xsd">

    <input>
        <sumocfg-file value="/Users/jemeryhua/Desktop/cricle.sumocfg"/>
        <additional-files value="/Users/jemeryhua/Desktop/cricle.add"/>
        <sumo-net-file value="/Users/jemeryhua/Desktop/circle.net.xml"/>
    </input>

    <output>
        <output-file value="/Users/jemeryhua/Desktop/circle.net.xml"/>
    </output>

    <processing>
        <geometry.min-radius.fix.railways value="false"/>
        <geometry.max-grade.fix value="false"/>
        <offset.disable-normalization value="true"/>
        <lefthand value="0"/>
    </processing>

    <junctions>
        <no-turnarounds value="true"/>
        <junctions.corner-detail value="5"/>
        <junctions.limit-turn-speed value="5.50"/>
        <rectangular-lane-cut value="0"/>
    </junctions>

    <pedestrian>
        <walkingareas value="0"/>
    </pedestrian>

</configuration>
-->

<net version="1.16" junctionCornerDetail="5" limitTurnSpeed="5.50" xmlns:xsi="http://www.w3.org/2001/XMLSchema-instance" xsi:noNamespaceSchemaLocation="http://sumo.dlr.de/xsd/net_file.xsd">

    <location netOffset="0.00,0.00" convBoundary="-12.44,18.24,58.78,88.26" origBoundary="-10000000000.00,-10000000000.00,10000000000.00,10000000000.00" projParameter="!"/>

    <edge id=":J0_0" function="internal">
        <lane id=":J0_0_0" index="0" speed="3.92" length="2.34" shape="-13.76,49.46 -14.04,48.90 -14.09,48.36 -13.92,47.85 -13.51,47.37"/>
    </edge>
    <edge id=":J1_0" function="internal">
        <lane id=":J1_0_0" index="0" speed="3.97" length="1.91" shape="20.29,17.05 20.70,16.76 21.14,16.63 21.59,16.64 22.06,16.80"/>
    </edge>
    <edge id=":J2_0" function="internal">
        <lane id=":J2_0_0" index="0" speed="4.02" length="1.68" shape="56.80,33.84 57.17,34.08 57.44,34.38 57.62,34.74 57.70,35.17"/>
    </edge>
    <edge id=":J3_0" function="internal">
        <lane id=":J3_0_0" index="0" speed="3.94" length="2.14" shape="60.38,73.66 60.34,74.23 60.15,74.69 59.79,75.04 59.28,75.29"/>
    </edge>
    <edge id=":J4_0" function="internal">
        <lane id=":J4_0_0" index="0" speed="3.94" length="2.08" shape="15.15,89.78 14.61,89.88 14.12,89.81 13.70,89.57 13.33,89.16"/>
    </edge>

    <edge id="E0" from="J0" to="J1" priority="-1">
        <lane id="E0_0" index="0" speed="13.89" length="45.41" shape="-13.51,47.37 20.29,17.05"/>
    </edge>
    <edge id="E1" from="J1" to="J2" priority="-1">
        <lane id="E1_0" index="0" speed="13.89" length="38.69" shape="22.06,16.80 56.80,33.84"/>
    </edge>
    <edge id="E2" from="J2" to="J3" priority="-1">
        <lane id="E2_0" index="0" speed="13.89" length="38.58" shape="57.70,35.17 60.38,73.66"/>
    </edge>
    <edge id="E3" from="J3" to="J4" priority="-1">
        <lane id="E3_0" index="0" speed="13.89" length="46.45" shape="59.28,75.29 15.15,89.78"/>
    </edge>
    <edge id="E4" from="J4" to="J0" priority="-1">
        <lane id="E4_0" index="0" speed="13.89" length="48.06" shape="13.33,89.16 -13.76,49.46"/>
    </edge>

    <junction id="J0" type="priority" x="-12.44" y="48.56" incLanes="E4_0" intLanes=":J0_0_0" shape="-15.08,50.36 -12.44,48.56 -14.58,46.18 -15.56,47.47 -15.75,48.16 -15.73,48.87 -15.51,49.60">
        <request index="0" response="0" foes="0" cont="0"/>
    </junction>
    <junction id="J1" type="priority" x="21.36" y="18.24" incLanes="E0_0" intLanes=":J1_0_0" shape="21.36,18.24 22.77,15.37 21.51,15.00 20.91,15.01 20.33,15.16 19.77,15.44 19.22,15.86">
        <request index="0" response="0" foes="0" cont="0"/>
    </junction>
    <junction id="J2" type="priority" x="56.10" y="35.28" incLanes="E1_0" intLanes=":J2_0_0" shape="56.10,35.28 59.29,35.06 59.04,33.95 58.78,33.48 58.44,33.06 58.02,32.71 57.51,32.41">
        <request index="0" response="0" foes="0" cont="0"/>
    </junction>
    <junction id="J3" type="priority" x="58.78" y="73.77" incLanes="E2_0" intLanes=":J3_0_0" shape="61.97,73.55 58.78,73.77 59.78,76.81 61.07,76.10 61.51,75.61 61.81,75.01 61.96,74.33">
        <request index="0" response="0" foes="0" cont="0"/>
    </junction>
    <junction id="J4" type="priority" x="14.65" y="88.26" incLanes="E3_0" intLanes=":J4_0_0" shape="15.65,91.30 14.65,88.26 12.01,90.06 13.01,91.08 13.60,91.37 14.23,91.50 14.91,91.47">
        <request index="0" response="0" foes="0" cont="0"/>
    </junction>

    <connection from="E0" to="E1" fromLane="0" toLane="0" via=":J1_0_0" dir="l" state="M"/>
    <connection from="E1" to="E2" fromLane="0" toLane="0" via=":J2_0_0" dir="l" state="M"/>
    <connection from="E2" to="E3" fromLane="0" toLane="0" via=":J3_0_0" dir="l" state="M"/>
    <connection from="E3" to="E4" fromLane="0" toLane="0" via=":J4_0_0" dir="l" state="M"/>
    <connection from="E4" to="E0" fromLane="0" toLane="0" via=":J0_0_0" dir="l" state="M"/>

    <connection from=":J0_0" to="E0" fromLane="0" toLane="0" dir="l" state="M"/>
    <connection from=":J1_0" to="E1" fromLane="0" toLane="0" dir="l" state="M"/>
    <connection from=":J2_0" to="E2" fromLane="0" toLane="0" dir="l" state="M"/>
    <connection from=":J3_0" to="E3" fromLane="0" toLane="0" dir="l" state="M"/>
    <connection from=":J4_0" to="E4" fromLane="0" toLane="0" dir="l" state="M"/>

</net>
