<routes>
    <vType id="car"
        vClass="passenger" length="5" acecel="3.5" decel="2.2"
        sigma="1.0" maxSpeed="10"/>
    <vType id="ev"
        vClass="emergency" length="7" accel="5.5" decel="2.2" sigma="1.0"
        maxSpeed="20" guiShape="emergency" speedFactor="2.8"
        minGapLat="0.2"/> 

    
    <flow id="carflow" type="car" beg="0" end="0" number="5" from="e1" to="e8">
        <route id="route_0" edges="e1 e2 e3 e4 e5 e6 e7 e8"/>
    </flow>

    <!--<vehicle id="0" type="car" route="route_0" depart="0"/>-->

</routes>