<?xml version="1.0" encoding="UTF-8"?>

<!-- generated on 2023-02-21 16:28:33 by Eclipse SUMO sumo Version 1.16.0
-->

<configuration xmlns:xsi="http://www.w3.org/2001/XMLSchema-instance" xsi:noNamespaceSchemaLocation="http://sumo.dlr.de/xsd/sumoConfiguration.xsd">

    <input>
        <net-file value="test.net.xml"/>
        <route-files value="test.rou.xml"/>
    </input>

    <gui_only>
        <gui-settings-file value="default.settings.xml"/>
    </gui_only>

</configuration>
