<?xml version="1.0" encoding="UTF-8"?>

<!-- generated on 2023-02-21 16:27:28 by Eclipse SUMO netedit Version 1.16.0
-->

<routes xmlns:xsi="http://www.w3.org/2001/XMLSchema-instance" xsi:noNamespaceSchemaLocation="http://sumo.dlr.de/xsd/routes_file.xsd">
    <!-- Routes -->
    <route id="r_0" edges="-E13 -E12 -E17 E16 E11 E12 -E4 E6 -E14"/>
    <!-- Vehicles, persons and containers (sorted by depart) -->
    <flow id="f_0" begin="0.00" color="blue" route="r_0" end="3600.00" vehsPerHour="1800.00"/>
</routes>
