<?xml version="1.0" encoding="UTF-8"?>

<!-- generated on 2023-02-21 16:38:00.559811 by osmWebWizard.py UNKNOWN
<configuration>
    <allow-fringe.min-length value="1000.0"/>
    <begin value="0"/>
    <end value="3600"/>
    <fringe-factor value="5"/>
    <fringe-start-attributes value="departSpeed=&quot;max&quot;"/>
    <insertion-density value="12.0"/>
    <lanes value="True"/>
    <min-distance.fringe value="10.0"/>
    <min-distance value="300.0"/>
    <net-file value="/Users/jemeryhua/2023-02-21-16-37-21/osm.net.xml.gz"/>
    <remove-loops value="True"/>
    <route-file value="/Users/jemeryhua/2023-02-21-16-37-21/osm.passenger.rou.xml"/>
    <trip-attributes value="departLane=&quot;best&quot;"/>
    <output-trip-file value="/Users/jemeryhua/2023-02-21-16-37-21/osm.passenger.trips.xml"/>
    <prefix value="veh"/>
    <validate value="True"/>
    <vehicle-class value="passenger"/>
</configuration>
-->

<!-- generated on 2023-02-21 16:38:00 by Eclipse SUMO duarouter Version 1.16.0
<configuration xmlns:xsi="http://www.w3.org/2001/XMLSchema-instance" xsi:noNamespaceSchemaLocation="http://sumo.dlr.de/xsd/duarouterConfiguration.xsd">

    <input>
        <net-file value="/Users/jemeryhua/2023-02-21-16-37-21/osm.net.xml.gz"/>
        <route-files value="/Users/jemeryhua/2023-02-21-16-37-21/osm.passenger.trips.xml"/>
    </input>

    <output>
        <output-file value="/Users/jemeryhua/2023-02-21-16-37-21/osm.passenger.trips.xml.tmp"/>
        <alternatives-output value="NUL"/>
        <write-trips value="true"/>
    </output>

    <processing>
        <remove-loops value="true"/>
    </processing>

    <time>
        <begin value="0"/>
        <end value="3600"/>
    </time>

    <report>
        <no-warnings value="true"/>
        <ignore-errors value="true"/>
        <no-step-log value="true"/>
    </report>

</configuration>
-->

<routes xmlns:xsi="http://www.w3.org/2001/XMLSchema-instance" xsi:noNamespaceSchemaLocation="http://sumo.dlr.de/xsd/routes_file.xsd">
    <vType id="veh_passenger" vClass="passenger"/>
    <trip id="veh0" type="veh_passenger" depart="0.00" departLane="best" from="127187914#0" to="-103640957#0"/>
    <trip id="veh1" type="veh_passenger" depart="1.09" departLane="best" from="-488587938#3" to="-128247474#0"/>
    <trip id="veh2" type="veh_passenger" depart="2.18" departLane="best" from="231522792#1" to="-153742399#0"/>
    <trip id="veh4" type="veh_passenger" depart="4.37" departLane="best" from="103746463" to="-103640963#1"/>
    <trip id="veh6" type="veh_passenger" depart="6.55" departLane="best" from="-103640975#1" to="-122891502#2"/>
    <trip id="veh7" type="veh_passenger" depart="7.65" departLane="best" departSpeed="max" from="127192205" to="105440811#0"/>
    <trip id="veh9" type="veh_passenger" depart="9.83" departLane="best" departSpeed="max" from="265389535#0" to="-103636311#2"/>
    <trip id="veh10" type="veh_passenger" depart="10.92" departLane="best" from="243164214#1" to="202517255#2"/>
    <trip id="veh11" type="veh_passenger" depart="12.02" departLane="best" from="100305694#2-AddedOnRampEdge" to="-104949028#0"/>
    <trip id="veh12" type="veh_passenger" depart="13.11" departLane="best" from="-84250286#0" to="-607697637"/>
    <trip id="veh13" type="veh_passenger" depart="14.20" departLane="best" from="104372389#0" to="-103938247#2"/>
    <trip id="veh14" type="veh_passenger" depart="15.29" departLane="best" departSpeed="max" from="306232298#0" to="127029070#5"/>
    <trip id="veh15" type="veh_passenger" depart="16.39" departLane="best" from="243164215" to="236520139#1"/>
    <trip id="veh17" type="veh_passenger" depart="18.57" departLane="best" from="-103639638#1" to="1077348922#1"/>
    <trip id="veh18" type="veh_passenger" depart="19.66" departLane="best" from="-282059864#0" to="127187918#1"/>
    <trip id="veh19" type="veh_passenger" depart="20.75" departLane="best" from="380915242#1" to="-122744428#3"/>
    <trip id="veh20" type="veh_passenger" depart="21.85" departLane="best" from="153741408#0" to="-103640989#0"/>
    <trip id="veh22" type="veh_passenger" depart="24.03" departLane="best" from="-103948559#0" to="-103947036#0"/>
    <trip id="veh24" type="veh_passenger" depart="26.22" departLane="best" from="-127187481#2" to="-972188566#1"/>
    <trip id="veh25" type="veh_passenger" depart="27.31" departLane="best" from="-103639127#0" to="-127187913#0"/>
    <trip id="veh27" type="veh_passenger" depart="29.49" departLane="best" departSpeed="max" from="127188017" to="127185904#1"/>
    <trip id="veh28" type="veh_passenger" depart="30.59" departLane="best" departSpeed="max" from="-240453470#4" to="236520139#1"/>
    <trip id="veh29" type="veh_passenger" depart="31.68" departLane="best" from="-177165400#2" to="-99295635#7"/>
    <trip id="veh30" type="veh_passenger" depart="32.77" departLane="best" from="99295637#2" to="149554157#1"/>
    <trip id="veh31" type="veh_passenger" depart="33.86" departLane="best" from="105440811#1" to="172746558"/>
    <trip id="veh34" type="veh_passenger" depart="37.14" departLane="best" from="-84250290#3" to="-282059865#0"/>
    <trip id="veh36" type="veh_passenger" depart="39.32" departLane="best" from="415176585" to="-46736242#1"/>
    <trip id="veh37" type="veh_passenger" depart="40.42" departLane="best" departSpeed="max" from="148449661" to="100305700#2"/>
    <trip id="veh38" type="veh_passenger" depart="41.51" departLane="best" from="-46736242#5" to="103747570"/>
    <trip id="veh39" type="veh_passenger" depart="42.60" departLane="best" departSpeed="max" from="-457868439#2" to="240453475"/>
    <trip id="veh40" type="veh_passenger" depart="43.69" departLane="best" departSpeed="max" from="106474092#0" to="278573557"/>
    <trip id="veh41" type="veh_passenger" depart="44.79" departLane="best" from="113819664#3" to="457868456#1"/>
    <trip id="veh42" type="veh_passenger" depart="45.88" departLane="best" from="-103640975#0" to="-127188017"/>
    <trip id="veh43" type="veh_passenger" depart="46.97" departLane="best" from="99296396#9" to="-103949730"/>
    <trip id="veh44" type="veh_passenger" depart="48.06" departLane="best" departSpeed="max" from="104372381" to="-103641066#1"/>
    <trip id="veh45" type="veh_passenger" depart="49.16" departLane="best" from="-105440802" to="149550340#2"/>
    <trip id="veh46" type="veh_passenger" depart="50.25" departLane="best" from="-240453471#1" to="103640957#1"/>
    <trip id="veh47" type="veh_passenger" depart="51.34" departLane="best" from="103937240#2" to="100305694#2-AddedOnRampEdge"/>
    <trip id="veh48" type="veh_passenger" depart="52.43" departLane="best" from="99296396#5" to="104946490#0"/>
    <trip id="veh49" type="veh_passenger" depart="53.53" departLane="best" departSpeed="max" from="99145247#0" to="415176579#1"/>
    <trip id="veh50" type="veh_passenger" depart="54.62" departLane="best" from="-103639128#0" to="233473954#1"/>
    <trip id="veh51" type="veh_passenger" depart="55.71" departLane="best" from="149561622" to="104949029#3"/>
    <trip id="veh52" type="veh_passenger" depart="56.80" departLane="best" from="46736242#1" to="149554157#2"/>
    <trip id="veh53" type="veh_passenger" depart="57.89" departLane="best" from="-106474092#1" to="103642345#2"/>
    <trip id="veh54" type="veh_passenger" depart="58.99" departLane="best" from="103755114#0-AddedOffRampEdge" to="84250286#1"/>
    <trip id="veh55" type="veh_passenger" depart="60.08" departLane="best" from="415176584" to="280267858#0"/>
    <trip id="veh56" type="veh_passenger" depart="61.17" departLane="best" from="103949719#1" to="-1077348921#0"/>
    <trip id="veh59" type="veh_passenger" depart="64.45" departLane="best" from="127024099#3" to="-104948087"/>
    <trip id="veh60" type="veh_passenger" depart="65.54" departLane="best" from="233473938" to="-127024100#0"/>
    <trip id="veh61" type="veh_passenger" depart="66.63" departLane="best" from="236668627#1" to="104946490#1"/>
    <trip id="veh63" type="veh_passenger" depart="68.82" departLane="best" departSpeed="max" from="-103640957#1" to="641455078"/>
    <trip id="veh65" type="veh_passenger" depart="71.00" departLane="best" departSpeed="max" from="-766003470" to="-103642351#3"/>
    <trip id="veh66" type="veh_passenger" depart="72.10" departLane="best" from="415176587#4" to="766003470"/>
    <trip id="veh67" type="veh_passenger" depart="73.19" departLane="best" from="-104108007#1" to="103942712#0"/>
    <trip id="veh68" type="veh_passenger" depart="74.28" departLane="best" from="103939869#6" to="240453474#2"/>
    <trip id="veh69" type="veh_passenger" depart="75.37" departLane="best" from="233473954#0-AddedOnRampEdge" to="-104372386#2"/>
    <trip id="veh71" type="veh_passenger" depart="77.56" departLane="best" departSpeed="max" from="103746465" to="-127187913#2"/>
    <trip id="veh72" type="veh_passenger" depart="78.65" departLane="best" from="104948712#0" to="236520139#2"/>
    <trip id="veh73" type="veh_passenger" depart="79.74" departLane="best" from="-280267863#0" to="-457868473"/>
    <trip id="veh74" type="veh_passenger" depart="80.83" departLane="best" from="99296396#2" to="149554160#0"/>
    <trip id="veh75" type="veh_passenger" depart="81.93" departLane="best" from="103747566" to="-104372386#6"/>
    <trip id="veh76" type="veh_passenger" depart="83.02" departLane="best" from="1134192055#1" to="-148449662"/>
    <trip id="veh77" type="veh_passenger" depart="84.11" departLane="best" from="100305694#0" to="127025408#1"/>
    <trip id="veh78" type="veh_passenger" depart="85.20" departLane="best" from="-103940155#2" to="149554145#0"/>
    <trip id="veh80" type="veh_passenger" depart="87.39" departLane="best" departSpeed="max" from="365244725" to="-103747027#8"/>
    <trip id="veh81" type="veh_passenger" depart="88.48" departLane="best" departSpeed="max" from="-380915244#1" to="149570551#4"/>
    <trip id="veh82" type="veh_passenger" depart="89.57" departLane="best" departSpeed="max" from="-282059926#2" to="-104372402#5"/>
    <trip id="veh83" type="veh_passenger" depart="90.67" departLane="best" departSpeed="max" from="607697637" to="113821930#3"/>
    <trip id="veh84" type="veh_passenger" depart="91.76" departLane="best" from="103942710#2" to="-27619437#4"/>
    <trip id="veh85" type="veh_passenger" depart="92.85" departLane="best" from="243164215" to="-113821921#1"/>
    <trip id="veh86" type="veh_passenger" depart="93.94" departLane="best" from="104372402#0" to="-103640989#1"/>
    <trip id="veh88" type="veh_passenger" depart="96.13" departLane="best" departSpeed="max" from="231522792#0" to="-122744425#3"/>
    <trip id="veh89" type="veh_passenger" depart="97.22" departLane="best" departSpeed="max" from="99295635#0" to="-103938247#2"/>
    <trip id="veh90" type="veh_passenger" depart="98.31" departLane="best" departSpeed="max" from="103640985#0" to="673284748#2"/>
    <trip id="veh91" type="veh_passenger" depart="99.40" departLane="best" from="380915242#1" to="-240453478#0"/>
    <trip id="veh92" type="veh_passenger" depart="100.50" departLane="best" from="278455289#2" to="-103747027#2"/>
    <trip id="veh94" type="veh_passenger" depart="102.68" departLane="best" from="-433204234#2" to="527572904#8"/>
    <trip id="veh95" type="veh_passenger" depart="103.77" departLane="best" from="103751595#3" to="415176579#2"/>
    <trip id="veh96" type="veh_passenger" depart="104.87" departLane="best" departSpeed="max" from="104949034#0" to="-103642345#5"/>
    <trip id="veh98" type="veh_passenger" depart="107.05" departLane="best" from="98965440#1" to="607697638"/>
    <trip id="veh99" type="veh_passenger" depart="108.14" departLane="best" from="306379144#1" to="-1053516184#0"/>
    <trip id="veh100" type="veh_passenger" depart="109.24" departLane="best" departSpeed="max" from="103947034#0" to="-127187915#0"/>
    <trip id="veh101" type="veh_passenger" depart="110.33" departLane="best" departSpeed="max" from="103640980#0" to="-103642352#0"/>
    <trip id="veh102" type="veh_passenger" depart="111.42" departLane="best" from="103639643" to="-99295474#2"/>
    <trip id="veh103" type="veh_passenger" depart="112.51" departLane="best" departSpeed="max" from="-457868439#2" to="27619437#0"/>
    <trip id="veh104" type="veh_passenger" depart="113.60" departLane="best" from="103755114#1" to="-103640961"/>
    <trip id="veh105" type="veh_passenger" depart="114.70" departLane="best" from="84250286#1" to="99296396#2"/>
    <trip id="veh106" type="veh_passenger" depart="115.79" departLane="best" departSpeed="max" from="1053516184#0" to="233473954#0"/>
    <trip id="veh107" type="veh_passenger" depart="116.88" departLane="best" departSpeed="max" from="-153742400#2" to="-394759361"/>
    <trip id="veh108" type="veh_passenger" depart="117.97" departLane="best" from="98965440#1" to="122891502#3"/>
    <trip id="veh109" type="veh_passenger" depart="119.07" departLane="best" departSpeed="max" from="104949028#0" to="236801238#5"/>
    <trip id="veh110" type="veh_passenger" depart="120.16" departLane="best" from="-103747578" to="127024099#0"/>
    <trip id="veh111" type="veh_passenger" depart="121.25" departLane="best" departSpeed="max" from="103949735#0" to="380915250#2"/>
    <trip id="veh112" type="veh_passenger" depart="122.34" departLane="best" from="-103745624" to="97049435#4"/>
    <trip id="veh113" type="veh_passenger" depart="123.44" departLane="best" from="-103948559#0" to="-113819650"/>
    <trip id="veh114" type="veh_passenger" depart="124.53" departLane="best" from="122744427" to="153741408#0"/>
    <trip id="veh115" type="veh_passenger" depart="125.62" departLane="best" departSpeed="max" from="-365244724" to="-103949719#0"/>
    <trip id="veh117" type="veh_passenger" depart="127.81" departLane="best" from="-1144290345#2" to="127187919"/>
    <trip id="veh118" type="veh_passenger" depart="128.90" departLane="best" from="1036845890#0" to="126754476#2"/>
    <trip id="veh121" type="veh_passenger" depart="132.17" departLane="best" departSpeed="max" from="-380915244#1" to="100305700#2"/>
    <trip id="veh122" type="veh_passenger" depart="133.27" departLane="best" from="149554160#1" to="415176587#2"/>
    <trip id="veh123" type="veh_passenger" depart="134.36" departLane="best" from="-84250290#8" to="236801238#8"/>
    <trip id="veh124" type="veh_passenger" depart="135.45" departLane="best" from="-103940634#0" to="103747567#1"/>
    <trip id="veh126" type="veh_passenger" depart="137.64" departLane="best" from="-103940635#2" to="-127187915#0"/>
    <trip id="veh127" type="veh_passenger" depart="138.73" departLane="best" departSpeed="max" from="-457868439#2" to="754147354#0"/>
    <trip id="veh128" type="veh_passenger" depart="139.82" departLane="best" from="103639126#3" to="-104949028#5"/>
    <trip id="veh129" type="veh_passenger" depart="140.91" departLane="best" from="282059926#1" to="231522793#1"/>
    <trip id="veh131" type="veh_passenger" depart="143.10" departLane="best" from="278455289#0" to="415176587#0"/>
    <trip id="veh133" type="veh_passenger" depart="145.28" departLane="best" from="-122891502#2" to="-103948547#8"/>
    <trip id="veh134" type="veh_passenger" depart="146.38" departLane="best" from="-104949034#1" to="1077348922#1"/>
    <trip id="veh135" type="veh_passenger" depart="147.47" departLane="best" departSpeed="max" from="-479212132" to="127030842"/>
    <trip id="veh136" type="veh_passenger" depart="148.56" departLane="best" from="180345971#0" to="-123838953#3"/>
    <trip id="veh137" type="veh_passenger" depart="149.65" departLane="best" from="127185904#1" to="280267859#0"/>
    <trip id="veh138" type="veh_passenger" depart="150.74" departLane="best" departSpeed="max" from="103947037#0" to="-46736242#3"/>
    <trip id="veh141" type="veh_passenger" depart="154.02" departLane="best" from="-103638418#0" to="243164210#0"/>
    <trip id="veh142" type="veh_passenger" depart="155.11" departLane="best" departSpeed="max" from="127187913#0" to="280266347#1"/>
    <trip id="veh143" type="veh_passenger" depart="156.21" departLane="best" from="231522793#2" to="1077348921#1"/>
    <trip id="veh144" type="veh_passenger" depart="157.30" departLane="best" from="-103747027#3" to="-103638518#0"/>
    <trip id="veh145" type="veh_passenger" depart="158.39" departLane="best" from="103947043#0" to="433204236"/>
    <trip id="veh148" type="veh_passenger" depart="161.67" departLane="best" from="-128247473#2" to="-104218580#2"/>
    <trip id="veh149" type="veh_passenger" depart="162.76" departLane="best" departSpeed="max" from="-766003471" to="457868456#1"/>
    <trip id="veh150" type="veh_passenger" depart="163.85" departLane="best" from="99295635#5" to="415176579#1"/>
    <trip id="veh152" type="veh_passenger" depart="166.04" departLane="best" from="433204234#1" to="-103940155#1"/>
    <trip id="veh153" type="veh_passenger" depart="167.13" departLane="best" from="236801238#3" to="433204236"/>
    <trip id="veh154" type="veh_passenger" depart="168.22" departLane="best" from="-103642340#2" to="127188016#2"/>
    <trip id="veh155" type="veh_passenger" depart="169.31" departLane="best" departSpeed="max" from="-153742400#2" to="641455078"/>
    <trip id="veh156" type="veh_passenger" depart="170.41" departLane="best" departSpeed="max" from="380915250#0" to="99145710#0"/>
    <trip id="veh157" type="veh_passenger" depart="171.50" departLane="best" from="273985258" to="433204235"/>
    <trip id="veh158" type="veh_passenger" depart="172.59" departLane="best" from="103640963#8" to="236668624"/>
    <trip id="veh160" type="veh_passenger" depart="174.78" departLane="best" from="243164212#0" to="415176587#2"/>
    <trip id="veh161" type="veh_passenger" depart="175.87" departLane="best" from="273985258" to="282059863#2"/>
    <trip id="veh162" type="veh_passenger" depart="176.96" departLane="best" departSpeed="max" from="240453469#0" to="-103947034#1"/>
    <trip id="veh164" type="veh_passenger" depart="179.15" departLane="best" departSpeed="max" from="103938247#0" to="-457868418"/>
    <trip id="veh165" type="veh_passenger" depart="180.24" departLane="best" from="240453476#0" to="-153741418#0"/>
    <trip id="veh166" type="veh_passenger" depart="181.33" departLane="best" from="-103640963#6" to="113821930#3"/>
    <trip id="veh167" type="veh_passenger" depart="182.42" departLane="best" from="99145247#3" to="415176587#3"/>
    <trip id="veh169" type="veh_passenger" depart="184.61" departLane="best" departSpeed="max" from="127187915#0" to="102689128#0"/>
    <trip id="veh171" type="veh_passenger" depart="186.79" departLane="best" from="673284748#3" to="-103948547#8"/>
    <trip id="veh172" type="veh_passenger" depart="187.88" departLane="best" from="-97049435#1" to="280267862#1"/>
    <trip id="veh173" type="veh_passenger" depart="188.98" departLane="best" departSpeed="max" from="-1053516184#1" to="-103642345#1"/>
    <trip id="veh174" type="veh_passenger" depart="190.07" departLane="best" departSpeed="max" from="231522792#0" to="-457868481"/>
    <trip id="veh175" type="veh_passenger" depart="191.16" departLane="best" from="126754476#2" to="103949733#0"/>
    <trip id="veh176" type="veh_passenger" depart="192.25" departLane="best" from="103640961" to="122744427"/>
    <trip id="veh177" type="veh_passenger" depart="193.35" departLane="best" departSpeed="max" from="-433204237" to="231522794#2"/>
    <trip id="veh179" type="veh_passenger" depart="195.53" departLane="best" from="231522794#0" to="149570551#7"/>
    <trip id="veh180" type="veh_passenger" depart="196.62" departLane="best" from="103638418#2" to="103747027#6"/>
    <trip id="veh181" type="veh_passenger" depart="197.72" departLane="best" from="149554156" to="527572904#5"/>
    <trip id="veh182" type="veh_passenger" depart="198.81" departLane="best" from="-84250286#0" to="380915244#0"/>
    <trip id="veh183" type="veh_passenger" depart="199.90" departLane="best" from="180345971#1" to="415176587#3"/>
    <trip id="veh184" type="veh_passenger" depart="200.99" departLane="best" departSpeed="max" from="-766003471" to="103639127#2"/>
    <trip id="veh185" type="veh_passenger" depart="202.09" departLane="best" from="103640980#2" to="-394759361"/>
    <trip id="veh186" type="veh_passenger" depart="203.18" departLane="best" from="-1144290345#2" to="103640061#2"/>
    <trip id="veh187" type="veh_passenger" depart="204.27" departLane="best" departSpeed="max" from="754147353#0" to="153742400#0"/>
    <trip id="veh188" type="veh_passenger" depart="205.36" departLane="best" departSpeed="max" from="457868434" to="-127187916"/>
    <trip id="veh191" type="veh_passenger" depart="208.64" departLane="best" from="103747536" to="122891502#7"/>
    <trip id="veh192" type="veh_passenger" depart="209.73" departLane="best" departSpeed="max" from="148449661" to="103755065"/>
    <trip id="veh193" type="veh_passenger" depart="210.82" departLane="best" from="-103751595#1" to="-127187915#0"/>
    <trip id="veh194" type="veh_passenger" depart="211.92" departLane="best" from="103942710#3" to="457868456#1"/>
    <trip id="veh195" type="veh_passenger" depart="213.01" departLane="best" from="99295635#5" to="-106474090#1"/>
    <trip id="veh196" type="veh_passenger" depart="214.10" departLane="best" from="-103949733#7" to="104218619"/>
    <trip id="veh197" type="veh_passenger" depart="215.19" departLane="best" from="127030845" to="-607697637"/>
    <trip id="veh198" type="veh_passenger" depart="216.29" departLane="best" from="278455289#3" to="236801238#7-AddedOnRampEdge"/>
    <trip id="veh199" type="veh_passenger" depart="217.38" departLane="best" departSpeed="max" from="-280267862#2" to="-103640957#0"/>
    <trip id="veh200" type="veh_passenger" depart="218.47" departLane="best" departSpeed="max" from="-380915250#2" to="-103938360"/>
    <trip id="veh201" type="veh_passenger" depart="219.56" departLane="best" from="309396502#2" to="-103747544"/>
    <trip id="veh202" type="veh_passenger" depart="220.66" departLane="best" from="-103642349#7" to="149550340#2"/>
    <trip id="veh203" type="veh_passenger" depart="221.75" departLane="best" departSpeed="max" from="-279357996#1" to="180345976"/>
    <trip id="veh204" type="veh_passenger" depart="222.84" departLane="best" from="103948557#0" to="-240453471#0"/>
    <trip id="veh206" type="veh_passenger" depart="225.02" departLane="best" departSpeed="max" from="231811880" to="240453651"/>
    <trip id="veh207" type="veh_passenger" depart="226.12" departLane="best" from="-104949032" to="103640963#2"/>
    <trip id="veh208" type="veh_passenger" depart="227.21" departLane="best" from="-240453477#1" to="97049435#0"/>
    <trip id="veh209" type="veh_passenger" depart="228.30" departLane="best" from="104474718" to="103642345#0"/>
    <trip id="veh210" type="veh_passenger" depart="229.39" departLane="best" from="-433204234#0" to="380915244#0"/>
    <trip id="veh211" type="veh_passenger" depart="230.49" departLane="best" from="103937240#0" to="280267857"/>
    <trip id="veh212" type="veh_passenger" depart="231.58" departLane="best" from="149554157#1" to="-99295635#5"/>
    <trip id="veh215" type="veh_passenger" depart="234.86" departLane="best" from="180345971#1" to="103948559#0"/>
    <trip id="veh216" type="veh_passenger" depart="235.95" departLane="best" from="-282059866" to="106474093"/>
    <trip id="veh217" type="veh_passenger" depart="237.04" departLane="best" from="455187479#0" to="236668625"/>
    <trip id="veh218" type="veh_passenger" depart="238.13" departLane="best" from="103942710#5-AddedOffRampEdge" to="-279357996#0"/>
    <trip id="veh219" type="veh_passenger" depart="239.23" departLane="best" from="-415176586" to="149554157#0"/>
    <trip id="veh220" type="veh_passenger" depart="240.32" departLane="best" from="233473954#0-AddedOnRampEdge" to="104372402#4"/>
    <trip id="veh222" type="veh_passenger" depart="242.50" departLane="best" from="103948527#1" to="-309850914#0"/>
    <trip id="veh224" type="veh_passenger" depart="244.69" departLane="best" from="104949027" to="-104476323"/>
    <trip id="veh225" type="veh_passenger" depart="245.78" departLane="best" from="309396502#2" to="180345973#0"/>
    <trip id="veh226" type="veh_passenger" depart="246.87" departLane="best" departSpeed="max" from="153741418#0" to="-103746465"/>
    <trip id="veh227" type="veh_passenger" depart="247.96" departLane="best" from="-103642343#2" to="1053516184#1"/>
    <trip id="veh228" type="veh_passenger" depart="249.06" departLane="best" from="103642350#6" to="-127024746"/>
    <trip id="veh229" type="veh_passenger" depart="250.15" departLane="best" from="161502951#0" to="-46736242#3"/>
    <trip id="veh231" type="veh_passenger" depart="252.33" departLane="best" departSpeed="max" from="364450778" to="240453480"/>
    <trip id="veh232" type="veh_passenger" depart="253.43" departLane="best" from="103640061#1" to="-103636311#0"/>
    <trip id="veh234" type="veh_passenger" depart="255.61" departLane="best" departSpeed="max" from="364450778" to="-84250286#0"/>
    <trip id="veh235" type="veh_passenger" depart="256.70" departLane="best" from="1036845890#0" to="236801238#4"/>
    <trip id="veh236" type="veh_passenger" depart="257.80" departLane="best" from="104949029#4" to="127029070#5"/>
    <trip id="veh238" type="veh_passenger" depart="259.98" departLane="best" from="103747561#3" to="-103640962#3"/>
    <trip id="veh239" type="veh_passenger" depart="261.07" departLane="best" from="99295635#4" to="153742400#2"/>
    <trip id="veh240" type="veh_passenger" depart="262.16" departLane="best" departSpeed="max" from="103640985#0" to="-104950363#0"/>
    <trip id="veh241" type="veh_passenger" depart="263.26" departLane="best" from="103940155#4" to="-104218580#2"/>
    <trip id="veh242" type="veh_passenger" depart="264.35" departLane="best" from="127029067#0" to="-103640962#1"/>
    <trip id="veh243" type="veh_passenger" depart="265.44" departLane="best" departSpeed="max" from="103640964#0" to="-1134192055#2"/>
    <trip id="veh244" type="veh_passenger" depart="266.53" departLane="best" from="103640980#2" to="149554157#2"/>
    <trip id="veh245" type="veh_passenger" depart="267.63" departLane="best" from="-122891502#8" to="103751595#1"/>
    <trip id="veh246" type="veh_passenger" depart="268.72" departLane="best" from="-103747547" to="-99295635#6"/>
    <trip id="veh247" type="veh_passenger" depart="269.81" departLane="best" departSpeed="max" from="-282059865#1" to="527572904#11"/>
    <trip id="veh248" type="veh_passenger" depart="270.90" departLane="best" from="233473934" to="-99295635#6"/>
    <trip id="veh250" type="veh_passenger" depart="273.09" departLane="best" departSpeed="max" from="-433204236" to="-103751583#0"/>
    <trip id="veh252" type="veh_passenger" depart="275.27" departLane="best" departSpeed="max" from="127192205" to="265389535#2"/>
    <trip id="veh253" type="veh_passenger" depart="276.37" departLane="best" departSpeed="max" from="127192205" to="-240453469#1"/>
    <trip id="veh254" type="veh_passenger" depart="277.46" departLane="best" departSpeed="max" from="766003469#0" to="122891502#3"/>
    <trip id="veh255" type="veh_passenger" depart="278.55" departLane="best" from="-103640962#2" to="-104947324"/>
    <trip id="veh257" type="veh_passenger" depart="280.73" departLane="best" departSpeed="max" from="106474458#0" to="-127187919"/>
    <trip id="veh258" type="veh_passenger" depart="281.83" departLane="best" from="149570551#7" to="240453481"/>
    <trip id="veh259" type="veh_passenger" depart="282.92" departLane="best" from="-240453470#0" to="127030844#1"/>
    <trip id="veh261" type="veh_passenger" depart="285.10" departLane="best" from="278455289#5" to="97189800#0"/>
    <trip id="veh262" type="veh_passenger" depart="286.20" departLane="best" departSpeed="max" from="-1053516184#1" to="103640959"/>
    <trip id="veh264" type="veh_passenger" depart="288.38" departLane="best" from="-84250290#10" to="100305700#3"/>
    <trip id="veh265" type="veh_passenger" depart="289.47" departLane="best" from="172886592" to="103747561#0"/>
    <trip id="veh266" type="veh_passenger" depart="290.57" departLane="best" departSpeed="max" from="149570551#0" to="149550340#2"/>
    <trip id="veh267" type="veh_passenger" depart="291.66" departLane="best" from="-104946244#1" to="243164210#1"/>
    <trip id="veh269" type="veh_passenger" depart="293.84" departLane="best" from="1134192055#1" to="99295473#2"/>
    <trip id="veh271" type="veh_passenger" depart="296.03" departLane="best" from="-103747027#6" to="99145247#4"/>
    <trip id="veh272" type="veh_passenger" depart="297.12" departLane="best" from="-104218580#2" to="-754147353#0"/>
    <trip id="veh274" type="veh_passenger" depart="299.30" departLane="best" from="-104949028#4" to="97049435#4"/>
    <trip id="veh276" type="veh_passenger" depart="301.49" departLane="best" from="153741418#1" to="-103642345#7"/>
    <trip id="veh277" type="veh_passenger" depart="302.58" departLane="best" departSpeed="max" from="231522792#0" to="97189800#0"/>
    <trip id="veh278" type="veh_passenger" depart="303.67" departLane="best" from="-46736242#5" to="280267863#1"/>
    <trip id="veh280" type="veh_passenger" depart="305.86" departLane="best" from="103747561#3" to="236520139#2"/>
    <trip id="veh281" type="veh_passenger" depart="306.95" departLane="best" from="46736242#2" to="380915247#8"/>
    <trip id="veh282" type="veh_passenger" depart="308.04" departLane="best" from="-282059866" to="-103751598"/>
    <trip id="veh283" type="veh_passenger" depart="309.14" departLane="best" from="415176588#2" to="-240453471#0"/>
    <trip id="veh284" type="veh_passenger" depart="310.23" departLane="best" from="103939869#0" to="127187481#0"/>
    <trip id="veh285" type="veh_passenger" depart="311.32" departLane="best" from="309850914#3" to="-1087858227#1"/>
    <trip id="veh286" type="veh_passenger" depart="312.41" departLane="best" from="100305694#2-AddedOnRampEdge" to="-433204234#1"/>
    <trip id="veh288" type="veh_passenger" depart="314.60" departLane="best" from="-103639127#5" to="766003471"/>